Circuit: * C:\Users\WINDOWS\Downloads\Electronics\midterm\Test.asc

Ignoring BSIM parameter XL
Ignoring BSIM parameter XW
Ignoring BSIM parameter XL
Ignoring BSIM parameter XW
Warning: Pd = 0 is less than W.
Warning: Ps = 0 is less than W.
Warning: Pd = 0 is less than W.
Warning: Ps = 0 is less than W.
Direct Newton iteration for .op point succeeded.

Date: Mon Feb 26 15:28:02 2024
Total elapsed time: 0.561 seconds.

tnom = 27
temp = 27
method = modified trap
totiter = 2141
traniter = 2096
tranpoints = 1049
accept = 1049
rejected = 0
matrix size = 482
fillins = 22
solver = Normal
Avg thread counts: 3.9/3.7/3.6/2.3
Matrix Compiler1: 26.69 KB object code size  7.7/4.8/[1.8]
Matrix Compiler2: 44.48 KB object code size  6.5/8.8/[4.1]

